Simulacoes/30/FLUXO_NWT_RPHSN_30.txt

  ***************** RESULTADOS - FLUXO DE POTÊNCIA **********************

                      MÉTODO NEWTON RAPHSON              


#####   HORÁRIO   => 01:00
#####   INTERVALO => 1

  NUMEROS DE BARRAS:	30
  NUMEROS DE LINHAS:	41
  QT. ITERAÇÕES:	4

  TENSÃO E POTÊNCIA POR BARRA
 -----------------------------------------------------------
 Barra Tensão  Ângulo      --Carga--       --Gerador-- 
       (pu)    (grau)      MW      MVar     MW      MVar  
 ------------------------------------------------------------
    1  1.060     0.00     0.00     0.00    15.32    27.75
    2  1.045     0.15     3.30     1.90    40.00   -19.64
    3  1.045    -0.83     0.40     0.20     0.00    -0.00
    4  1.040    -0.99     1.10     0.20     0.00    -0.00
    5  1.010    -0.92    14.10     2.90     0.00   -28.60
    6  1.038    -1.24     0.00     0.00     0.00    -0.00
    7  1.026    -1.23     3.40     1.60     0.00    -0.00
    8  1.034    -1.28     4.50     4.50    -0.00   -10.00
    9  1.082    -2.19     0.00     0.00     0.00     0.00
   10  1.093    -2.69    13.00     4.50     0.00    -0.00
   11  1.082    -2.19     0.00     0.00     0.00    -0.12
   12  1.097    -2.17     1.70     1.10    -0.00     0.00
   13  1.090    -2.17     0.00     0.00    -0.00    -6.00
   14  1.096    -2.35     0.90     0.20     0.00     0.00
   15  1.095    -2.41     1.20     0.40     0.00    -0.00
   16  1.094    -2.42     0.50     0.30     0.00    -0.00
   17  1.093    -2.63     1.30     0.90     0.00     0.00
   18  1.093    -2.60     0.50     0.10     0.00    -0.00
   19  1.092    -2.68     1.40     0.50     0.00    -0.00
   20  1.092    -2.69     0.30     0.10     0.00    -0.00
   21  1.092    -2.73     2.60     1.70     0.00    -0.00
   22  1.093    -2.72     0.00     0.00     0.00    -0.00
   23  1.094    -2.56     0.50     0.20     0.00    -0.00
   24  1.094    -2.71     1.30     1.00     0.00     0.00
   25  1.086    -2.30     0.00     0.00     0.00    -0.00
   26  1.084    -2.36     0.50     0.30     0.00    -0.00
   27  1.082    -2.02     0.00     0.00    -0.00     0.00
   28  1.039    -1.37     0.00     0.00     0.00    -0.00
   29  1.079    -2.19     0.40     0.10     0.00    -0.00
   30  1.078    -2.30     1.60     0.30     0.00    -0.00

             Total->     54.50    23.00    55.32   -36.61

  CORRENTE e FLUXO DE POTÊNCIA POR LINHA
-----------------------------------------------------------------------------------------
 De Para  I(pu) Ângulo     FLUXO DIRETO     FLUXO INVERSO      PERDAS
                (grau)     MW   -> MVar     MW   <- MVar    MW      MVar 
-----------------------------------------------------------------------------------------
  1   2   0.224  -80.76    3.81   23.42   -3.69  -28.91    0.12   -5.49
  1   3   0.116  -20.60   11.51    4.33  -11.44   -8.59    0.07   -4.26
  2   4   0.119   14.15   12.09   -3.01  -12.01   -0.75    0.08   -3.77
  3   4   0.133  -38.05   11.04    8.39  -11.02   -9.23    0.02   -0.84
  2   5   0.180  -43.63   13.59   13.02  -13.41  -16.67    0.18   -3.65
  2   6   0.143   10.32   14.71   -2.64  -14.60   -1.07    0.12   -3.71
  4   6   0.116   -8.01   12.02    1.48  -12.00   -2.40    0.02   -0.92
  5   7   0.147   91.75   -0.69  -14.82    0.78   12.92    0.09   -1.90
  6   7   0.130  -73.05    4.23   12.87   -4.18  -14.52    0.05   -1.65
  6   8   0.094  -63.73    4.49    8.62   -4.48   -9.55    0.01   -0.93
  6   9   0.135   47.55    9.21  -10.51   -9.21   10.87    0.00    0.36
  6  10   0.065   37.03    5.32   -4.19   -5.32    4.42   -0.00    0.22
  9  11   0.001  -92.19    0.00    0.12   -0.00   -0.12    0.00    0.00
  9  10   0.133   47.87    9.21  -11.00   -9.21   11.19   -0.00    0.19
  4  12   0.124  -40.95    9.91    8.30   -9.91   -7.96    0.00    0.34
 12  13   0.055  -92.17    0.00    6.04   -0.00   -6.00   -0.00    0.04
 12  14   0.013   -6.11    1.45    0.10   -1.45   -0.10    0.00    0.00
 12  15   0.036   -7.11    3.96    0.34   -3.95   -0.32    0.01    0.02
 12  16   0.026   -9.83    2.80    0.38   -2.79   -0.36    0.01    0.01
 14  15   0.005    8.37    0.55   -0.10   -0.55    0.11    0.00    0.00
 16  17   0.021   -4.00    2.29    0.06   -2.29   -0.05    0.00    0.01
 15  18   0.017   -5.93    1.87    0.12   -1.87   -0.11    0.00    0.01
 18  19   0.013   -2.97    1.37    0.01   -1.37   -0.01    0.00    0.00
 19  20   0.005   90.88   -0.03   -0.49    0.03    0.49    0.00    0.00
 10  20   0.006  -63.55    0.33    0.59   -0.33   -0.59    0.00    0.00
 10  17   0.012 -142.09   -0.99    0.85    0.99   -0.85    0.00    0.00
 10  21   0.016  -32.05    1.56    0.88   -1.56   -0.88    0.00    0.00
 10  22   0.006  -27.95    0.62    0.29   -0.62   -0.29    0.00    0.00
 21  22   0.012  138.89   -1.04   -0.82    1.04    0.82    0.00    0.00
 15  23   0.013    9.32    1.43   -0.30   -1.42    0.30    0.00    0.00
 22  24   0.006  125.65   -0.42   -0.53    0.42    0.53    0.00    0.00
 23  24   0.010   25.85    0.92   -0.50   -0.92    0.50    0.00    0.00
 24  25   0.029 -107.13   -0.80    3.11    0.82   -3.08    0.02    0.03
 25  26   0.005  -33.32    0.50    0.30   -0.50   -0.30    0.00    0.00
 25  27   0.028 -117.63   -1.32    2.78    1.33   -2.76    0.01    0.02
 28  27   0.039   33.23    3.33   -2.30   -3.33    2.35   -0.00    0.06
 27  29   0.009  -13.98    0.95    0.20   -0.94   -0.20    0.00    0.00
 27  30   0.010  -13.24    1.06    0.21   -1.06   -0.20    0.00    0.01
 29  30   0.005  -12.30    0.54    0.10   -0.54   -0.10    0.00    0.00
  8  28   0.048   88.97   -0.02   -4.95    0.03    0.37    0.00   -4.59
  6  28   0.046   43.44    3.36   -3.32   -3.36    1.93    0.00   -1.39
                                        Total Perdas ->    0.82  -31.75

  ***************** RESULTADOS - FLUXO DE POTÊNCIA **********************

                      MÉTODO NEWTON RAPHSON              


#####   HORÁRIO   => 02:00
#####   INTERVALO => 2

  NUMEROS DE BARRAS:	30
  NUMEROS DE LINHAS:	41
  QT. ITERAÇÕES:	4

  TENSÃO E POTÊNCIA POR BARRA
 -----------------------------------------------------------
 Barra Tensão  Ângulo      --Carga--       --Gerador-- 
       (pu)    (grau)      MW      MVar     MW      MVar  
 ------------------------------------------------------------
    1  1.060     0.00     0.00     0.00    12.81    28.35
    2  1.045     0.21     3.00     1.80    40.00   -20.35
    3  1.045    -0.76     0.30     0.20     0.00    -0.00
    4  1.041    -0.90     0.50     0.10     0.00    -0.00
    5  1.010    -0.79    13.20     2.70     0.00   -29.30
    6  1.038    -1.15     0.00     0.00     0.00    -0.00
    7  1.026    -1.12     3.20     1.50     0.00    -0.00
    8  1.034    -1.19     4.20     4.20    -0.00   -10.00
    9  1.082    -2.11     0.00     0.00     0.00     0.00
   10  1.094    -2.61    13.80     4.80     0.00    -0.00
   11  1.082    -2.11     0.00     0.00     0.00    -0.21
   12  1.098    -2.07     1.60     1.10    -0.00     0.00
   13  1.090    -2.07     0.00     0.00    -0.00    -6.00
   14  1.096    -2.24     0.90     0.20     0.00     0.00
   15  1.095    -2.30     1.10     0.40     0.00    -0.00
   16  1.095    -2.33     0.50     0.30     0.00    -0.00
   17  1.093    -2.55     1.30     0.80     0.00     0.00
   18  1.093    -2.49     0.40     0.10     0.00    -0.00
   19  1.092    -2.58     1.30     0.50     0.00    -0.00
   20  1.092    -2.60     0.30     0.10     0.00    -0.00
   21  1.093    -2.65     2.50     1.60     0.00    -0.00
   22  1.093    -2.64     0.00     0.00     0.00    -0.00
   23  1.094    -2.45     0.40     0.20     0.00    -0.00
   24  1.095    -2.61     1.20     0.90     0.00     0.00
   25  1.087    -2.19     0.00     0.00     0.00    -0.00
   26  1.084    -2.24     0.50     0.30     0.00    -0.00
   27  1.083    -1.90     0.00     0.00    -0.00     0.00
   28  1.040    -1.27     0.00     0.00     0.00    -0.00
   29  1.080    -2.05     0.30     0.10     0.00    -0.00
   30  1.079    -2.15     1.50     0.30     0.00    -0.00

             Total->     52.00    22.20    52.81   -37.51

  CORRENTE e FLUXO DE POTÊNCIA POR LINHA
-----------------------------------------------------------------------------------------
 De Para  I(pu) Ângulo     FLUXO DIRETO     FLUXO INVERSO      PERDAS
                (grau)     MW   -> MVar     MW   <- MVar    MW      MVar 
-----------------------------------------------------------------------------------------
  1   2   0.227  -85.00    2.10   24.00   -1.97  -29.47    0.12   -5.47
  1   3   0.109  -22.13   10.71    4.35  -10.64   -8.64    0.06   -4.29
  2   4   0.116   15.09   11.76   -3.12  -11.68   -0.66    0.07   -3.78
  3   4   0.128  -39.98   10.34    8.44  -10.32   -9.29    0.02   -0.85
  2   5   0.176  -45.39   12.90   13.17  -12.72  -16.85    0.18   -3.68
  2   6   0.139   11.00   14.32   -2.73  -14.21   -1.00    0.11   -3.73
  4   6   0.114   -8.51   11.72    1.56  -11.71   -2.48    0.02   -0.92
  5   7   0.150   91.01   -0.48  -15.15    0.57   13.26    0.09   -1.89
  6   7   0.131  -74.91    3.82   13.11   -3.77  -14.76    0.05   -1.65
  6   8   0.090  -64.41    4.20    8.35   -4.19   -9.28    0.01   -0.93
  6   9   0.135   47.07    9.31  -10.42   -9.31   10.78    0.00    0.36
  6  10   0.065   36.55    5.37   -4.15   -5.37    4.38   -0.00    0.22
  9  11   0.002  -92.11    0.00    0.21   -0.00   -0.21    0.00    0.00
  9  10   0.133   47.62    9.31  -10.99   -9.31   11.18    0.00    0.19
  4  12   0.123  -41.16    9.78    8.28   -9.78   -7.94   -0.00    0.34
 12  13   0.055  -92.07    0.00    6.04   -0.00   -6.00    0.00    0.04
 12  14   0.013   -6.11    1.43    0.10   -1.42   -0.10    0.00    0.00
 12  15   0.035   -6.89    3.84    0.32   -3.84   -0.31    0.01    0.02
 12  16   0.027   -9.47    2.91    0.38   -2.91   -0.36    0.01    0.01
 14  15   0.005    8.97    0.52   -0.10   -0.52    0.10    0.00    0.00
 16  17   0.022   -3.85    2.41    0.06   -2.40   -0.05    0.00    0.01
 15  18   0.017   -6.18    1.87    0.13   -1.87   -0.12    0.00    0.01
 18  19   0.013   -3.29    1.47    0.02   -1.47   -0.02    0.00    0.00
 19  20   0.005   68.12    0.17   -0.48   -0.17    0.48    0.00    0.00
 10  20   0.005  -79.88    0.13    0.58   -0.13   -0.58    0.00    0.00
 10  17   0.012 -148.49   -1.10    0.75    1.10   -0.75    0.00    0.00
 10  21   0.014  -32.67    1.36    0.78   -1.36   -0.78    0.00    0.00
 10  22   0.005  -29.03    0.50    0.25   -0.50   -0.25    0.00    0.00
 21  22   0.013  141.84   -1.14   -0.82    1.14    0.82    0.00    0.00
 15  23   0.013   10.83    1.39   -0.32   -1.38    0.33    0.00    0.00
 22  24   0.008  135.97   -0.65   -0.57    0.65    0.57    0.00    0.00
 23  24   0.010   25.71    0.98   -0.53   -0.98    0.53    0.00    0.00
 24  25   0.030 -107.96   -0.87    3.15    0.88   -3.12    0.02    0.03
 25  26   0.005  -33.21    0.50    0.30   -0.50   -0.30    0.00    0.00
 25  27   0.029 -118.30   -1.38    2.82    1.39   -2.80    0.01    0.02
 28  27   0.038   34.94    3.20   -2.34   -3.20    2.39   -0.00    0.05
 27  29   0.008  -15.37    0.83    0.20   -0.83   -0.20    0.00    0.00
 27  30   0.009  -14.06    0.97    0.21   -0.97   -0.20    0.00    0.01
 29  30   0.005  -12.37    0.53    0.10   -0.53   -0.10    0.00    0.00
  8  28   0.048   88.88   -0.01   -4.92    0.01    0.33    0.00   -4.59
  6  28   0.045   45.51    3.21   -3.40   -3.21    2.01    0.00   -1.39
                                        Total Perdas ->    0.81  -31.83

  ***************** RESULTADOS - FLUXO DE POTÊNCIA **********************

                      MÉTODO NEWTON RAPHSON              


#####   HORÁRIO   => 03:00
#####   INTERVALO => 3

  NUMEROS DE BARRAS:	30
  NUMEROS DE LINHAS:	41
  QT. ITERAÇÕES:	4

  TENSÃO E POTÊNCIA POR BARRA
 -----------------------------------------------------------
 Barra Tensão  Ângulo      --Carga--       --Gerador-- 
       (pu)    (grau)      MW      MVar     MW      MVar  
 ------------------------------------------------------------
    1  1.060     0.00     0.00     0.00    15.73    27.67
    2  1.045     0.14     3.30     1.90    40.00   -19.45
    3  1.045    -0.84     0.40     0.20     0.00    -0.00
    4  1.040    -1.00     0.30     0.10     0.00    -0.00
    5  1.010    -0.94    14.10     2.90     0.00   -28.50
    6  1.038    -1.26     0.00     0.00     0.00    -0.00
    7  1.026    -1.25     3.40     1.60     0.00    -0.00
    8  1.034    -1.31     4.50     4.50    -0.00   -10.00
    9  1.082    -2.27     0.00     0.00     0.00     0.00
   10  1.093    -2.78    14.20     4.90     0.00    -0.00
   11  1.082    -2.27     0.00     0.00     0.00     0.08
   12  1.097    -2.23     1.70     1.10    -0.00     0.00
   13  1.089    -2.23     0.00     0.00     0.00    -6.00
   14  1.095    -2.41     0.90     0.20     0.00     0.00
   15  1.094    -2.47     1.20     0.40     0.00    -0.00
   16  1.094    -2.50     0.50     0.30     0.00    -0.00
   17  1.092    -2.72     1.30     0.90     0.00     0.00
   18  1.092    -2.68     0.50     0.10     0.00    -0.00
   19  1.091    -2.77     1.40     0.50     0.00    -0.00
   20  1.091    -2.78     0.30     0.10     0.00    -0.00
   21  1.092    -2.82     2.60     1.70     0.00    -0.00
   22  1.092    -2.81     0.00     0.00     0.00    -0.00
   23  1.093    -2.63     0.50     0.20     0.00    -0.00
   24  1.093    -2.79     1.30     1.00     0.00     0.00
   25  1.086    -2.36     0.00     0.00     0.00    -0.00
   26  1.083    -2.42     0.50     0.30     0.00    -0.00
   27  1.082    -2.07     0.00     0.00    -0.00     0.00
   28  1.039    -1.40     0.00     0.00     0.00    -0.00
   29  1.079    -2.24     0.40     0.10     0.00    -0.00
   30  1.077    -2.35     1.60     0.30     0.00    -0.00

             Total->     54.90    23.30    55.73   -36.20

  CORRENTE e FLUXO DE POTÊNCIA POR LINHA
-----------------------------------------------------------------------------------------
 De Para  I(pu) Ângulo     FLUXO DIRETO     FLUXO INVERSO      PERDAS
                (grau)     MW   -> MVar     MW   <- MVar    MW      MVar 
-----------------------------------------------------------------------------------------
  1   2   0.223  -80.02    4.10   23.32   -3.98  -28.81    0.12   -5.49
  1   3   0.117  -20.49   11.63    4.35  -11.56   -8.60    0.07   -4.26
  2   4   0.119   13.90   12.13   -2.97  -12.05   -0.80    0.08   -3.76
  3   4   0.134  -37.82   11.16    8.40  -11.13   -9.24    0.02   -0.84
  2   5   0.181  -43.43   13.67   13.00  -13.49  -16.65    0.18   -3.65
  2   6   0.145    9.96   14.89   -2.58  -14.77   -1.12    0.12   -3.70
  4   6   0.122   -8.10   12.61    1.57  -12.59   -2.48    0.02   -0.91
  5   7   0.146   91.44   -0.61  -14.75    0.70   12.85    0.08   -1.90
  6   7   0.130  -73.30    4.15   12.79   -4.10  -14.45    0.05   -1.65
  6   8   0.094  -63.64    4.51    8.62   -4.50   -9.55    0.01   -0.93
  6   9   0.137   45.83    9.67  -10.40   -9.67   10.78    0.00    0.37
  6  10   0.067   34.97    5.58   -4.09   -5.58    4.32   -0.00    0.23
  9  11   0.001   87.73    0.00   -0.08   -0.00    0.08    0.00    0.00
  9  10   0.133   45.61    9.67  -10.69   -9.67   10.89    0.00    0.20
  4  12   0.127  -40.17   10.28    8.37  -10.28   -8.01    0.00    0.36
 12  13   0.055  -92.23    0.00    6.04   -0.00   -6.00    0.00    0.04
 12  14   0.014   -5.99    1.49    0.10   -1.49   -0.09    0.00    0.00
 12  15   0.037   -7.23    4.09    0.36   -4.09   -0.34    0.01    0.02
 12  16   0.028  -10.06    2.99    0.41   -2.98   -0.40    0.01    0.02
 14  15   0.005    7.89    0.59   -0.11   -0.59    0.11    0.00    0.00
 16  17   0.023   -4.71    2.48    0.10   -2.48   -0.09    0.00    0.01
 15  18   0.018   -6.04    1.99    0.12   -1.98   -0.12    0.00    0.01
 18  19   0.014   -3.32    1.48    0.02   -1.48   -0.01    0.00    0.00
 19  20   0.005   77.60    0.08   -0.49   -0.08    0.49    0.00    0.00
 10  20   0.006  -72.40    0.22    0.59   -0.22   -0.59    0.00    0.00
 10  17   0.013 -148.12   -1.18    0.82    1.18   -0.81    0.00    0.00
 10  21   0.016  -33.91    1.46    0.88   -1.46   -0.88    0.00    0.00
 10  22   0.006  -30.87    0.55    0.29   -0.55   -0.29    0.00    0.00
 21  22   0.013  141.46   -1.14   -0.82    1.14    0.82    0.00    0.00
 15  23   0.014    8.64    1.49   -0.29   -1.48    0.30    0.00    0.00
 22  24   0.007  135.42   -0.59   -0.53    0.59    0.53    0.00    0.00
 23  24   0.010   24.10    0.98   -0.50   -0.98    0.50    0.00    0.00
 24  25   0.030 -109.05   -0.91    3.11    0.92   -3.09    0.02    0.03
 25  26   0.005  -33.38    0.50    0.30   -0.50   -0.30    0.00    0.00
 25  27   0.029 -119.47   -1.43    2.78    1.43   -2.77    0.01    0.02
 28  27   0.040   32.35    3.44   -2.30   -3.44    2.36   -0.00    0.06
 27  29   0.009  -14.03    0.95    0.20   -0.94   -0.20    0.00    0.00
 27  30   0.010  -13.29    1.06    0.21   -1.06   -0.20    0.00    0.01
 29  30   0.005  -12.35    0.54    0.10   -0.54   -0.10    0.00    0.00
  8  28   0.048   88.70   -0.00   -4.95    0.00    0.37    0.00   -4.58
  6  28   0.046   42.65    3.45   -3.32   -3.44    1.93    0.00   -1.39
                                        Total Perdas ->    0.83  -31.67

  ***************** RESULTADOS - FLUXO DE POTÊNCIA **********************

                      MÉTODO NEWTON RAPHSON              


#####   HORÁRIO   => 04:00
#####   INTERVALO => 4

  NUMEROS DE BARRAS:	30
  NUMEROS DE LINHAS:	41
  QT. ITERAÇÕES:	4

  TENSÃO E POTÊNCIA POR BARRA
 -----------------------------------------------------------
 Barra Tensão  Ângulo      --Carga--       --Gerador-- 
       (pu)    (grau)      MW      MVar     MW      MVar  
 ------------------------------------------------------------
    1  1.060     0.00     0.00     0.00    52.62    20.82
    2  1.045    -0.66     6.70     3.90    47.80    -5.98
    3  1.038    -1.91     0.70     0.40     0.00    -0.00
    4  1.032    -2.32     0.50     0.10     0.00     0.00
    5  1.010    -3.20    29.20     5.90     0.00   -15.04
    6  1.028    -2.85     0.00     0.00    -0.00     0.00
    7  1.019    -3.18     7.10     3.40     0.00    -0.00
    8  1.022    -2.97     9.30     9.30     0.00   -10.00
    9  1.072    -4.32     0.00     0.00    -0.00     0.00
   10  1.078    -5.09    14.60     5.00     0.00    -0.00
   11  1.082    -4.32     0.00     0.00     0.00     5.07
   12  1.082    -4.39     3.50     2.30    -0.00     0.00
   13  1.074    -4.39     0.00     0.00     0.00    -6.00
   14  1.078    -4.70     1.90     0.50    -0.00     0.00
   15  1.077    -4.79     2.50     0.80     0.00    -0.00
   16  1.078    -4.77     1.10     0.60     0.00    -0.00
   17  1.077    -5.05     2.80     1.80     0.00     0.00
   18  1.074    -5.09     1.00     0.30     0.00    -0.00
   19  1.073    -5.21     2.90     1.10     0.00    -0.00
   20  1.074    -5.20     0.70     0.20     0.00    -0.00
   21  1.075    -5.19     5.40     3.50     0.00    -0.00
   22  1.075    -5.17     0.00     0.00     0.00    -0.00
   23  1.075    -5.00     1.00     0.50     0.00    -0.00
   24  1.074    -5.18     2.70     2.10     0.00     0.00
   25  1.068    -4.71     0.00     0.00     0.00    -0.00
   26  1.063    -4.83     1.10     0.70     0.00     0.00
   27  1.066    -4.34     0.00     0.00     0.00     0.00
   28  1.028    -3.06     0.00     0.00    -0.00     0.00
   29  1.060    -4.68     0.70     0.30     0.00    -0.00
   30  1.057    -4.93     3.30     0.60     0.00    -0.00

             Total->     98.70    43.30   100.42   -11.12

  CORRENTE e FLUXO DE POTÊNCIA POR LINHA
-----------------------------------------------------------------------------------------
 De Para  I(pu) Ângulo     FLUXO DIRETO     FLUXO INVERSO      PERDAS
                (grau)     MW   -> MVar     MW   <- MVar    MW      MVar 
-----------------------------------------------------------------------------------------
  1   2   0.304  -28.47   28.32   15.36  -28.13  -20.62    0.19   -5.27
  1   3   0.235  -12.68   24.29    5.47  -24.03   -9.00    0.26   -3.53
  2   4   0.178   -0.78   18.61    0.04  -18.43   -3.45    0.18   -3.41
  3   4   0.240  -22.15   23.33    8.60  -23.25   -9.28    0.08   -0.68
  2   5   0.273  -21.94   26.59   10.36  -26.21  -13.20    0.37   -2.84
  2   6   0.230   -1.51   24.03    0.35  -23.72   -3.43    0.31   -3.08
  4   6   0.235   -5.79   24.24    1.47  -24.17   -2.20    0.07   -0.73
  5   7   0.082  107.88   -2.99   -7.75    3.01    5.71    0.02   -2.04
  6   7   0.123  -39.15   10.15    7.46  -10.11   -9.11    0.04   -1.65
  6   8   0.156  -57.77    9.23   13.15   -9.20  -13.99    0.03   -0.84
  6   9   0.169   33.59   13.98  -10.32  -13.98   10.89    0.00    0.57
  6  10   0.084   18.29    8.04   -3.11   -8.04    3.48    0.00    0.37
  9  11   0.047   85.68    0.00   -5.03   -0.00    5.07    0.00    0.05
  9  10   0.141   18.43   13.98   -5.86  -13.98    6.08    0.00    0.22
  4  12   0.197  -35.68   16.94   11.16  -16.94  -10.30   -0.00    0.86
 12  13   0.056  -94.39    0.00    6.04   -0.00   -6.00   -0.00    0.04
 12  14   0.025  -13.46    2.67    0.43   -2.67   -0.41    0.01    0.02
 12  15   0.063  -13.81    6.74    1.12   -6.71   -1.07    0.03    0.05
 12  16   0.037  -10.24    4.03    0.41   -4.02   -0.38    0.01    0.03
 14  15   0.007    1.92    0.77   -0.09   -0.77    0.09    0.00    0.00
 16  17   0.027   -0.55    2.92   -0.22   -2.91    0.23    0.00    0.01
 15  18   0.026   -7.16    2.84    0.12   -2.84   -0.10    0.01    0.02
 18  19   0.017    1.06    1.84   -0.20   -1.83    0.20    0.00    0.00
 19  20   0.016  124.12   -1.07   -1.30    1.07    1.30    0.00    0.00
 10  20   0.022  -45.58    1.77    1.51   -1.77   -1.50    0.00    0.01
 10  17   0.019  -98.29   -0.11    2.03    0.11   -2.03    0.00    0.00
 10  21   0.045  -39.87    3.99    2.77   -3.98   -2.76    0.01    0.02
 10  22   0.020  -39.59    1.78    1.22   -1.77   -1.21    0.00    0.01
 21  22   0.015  147.11   -1.42   -0.74    1.42    0.75    0.00    0.00
 15  23   0.020   -6.34    2.13    0.06   -2.13   -0.05    0.00    0.01
 22  24   0.005  -58.16    0.35    0.47   -0.35   -0.47    0.00    0.00
 23  24   0.011   16.76    1.13   -0.45   -1.13    0.45    0.00    0.00
 24  25   0.029 -118.16   -1.22    2.88    1.24   -2.85    0.02    0.03
 25  26   0.012  -37.30    1.10    0.71   -1.10   -0.70    0.00    0.01
 25  27   0.030 -142.20   -2.34    2.14    2.35   -2.13    0.01    0.02
 28  27   0.063    6.16    6.37   -1.03   -6.37    1.18   -0.00    0.15
 27  29   0.018  -18.86    1.87    0.48   -1.86   -0.47    0.01    0.01
 27  30   0.021  -16.42    2.16    0.46   -2.15   -0.44    0.01    0.03
 29  30   0.011  -13.00    1.16    0.17   -1.15   -0.16    0.00    0.01
  8  28   0.052   88.08   -0.10   -5.31    0.10    0.83    0.01   -4.48
  6  28   0.065   10.60    6.48   -1.55   -6.48    0.20    0.01   -1.35
                                        Total Perdas ->    1.72  -27.36

  ***************** RESULTADOS - FLUXO DE POTÊNCIA **********************

                      MÉTODO NEWTON RAPHSON              


#####   HORÁRIO   => 05:00
#####   INTERVALO => 5

  NUMEROS DE BARRAS:	30
  NUMEROS DE LINHAS:	41
  QT. ITERAÇÕES:	3

  TENSÃO E POTÊNCIA POR BARRA
 -----------------------------------------------------------
 Barra Tensão  Ângulo      --Carga--       --Gerador-- 
       (pu)    (grau)      MW      MVar     MW      MVar  
 ------------------------------------------------------------
    1  1.060     0.00     0.00     0.00   105.46     9.42
    2  1.045    -1.89    10.20     6.00    40.00    12.60
    3  1.032    -3.23     1.10     0.60     0.00    -0.00
    4  1.025    -3.95     0.40     0.10     0.00    -0.00
    5  1.010    -5.85    44.30     8.90     0.00    -1.74
    6  1.020    -4.77     0.00     0.00     0.00    -0.00
    7  1.013    -5.48    10.70     5.10     0.00    -0.00
    8  1.011    -4.98    14.10    14.10    -0.00   -10.00
    9  1.064    -6.70     0.00     0.00     0.00    -0.00
   10  1.067    -7.69    14.50     5.00     0.00     0.00
   11  1.082    -6.70     0.00     0.00     0.00     9.12
   12  1.074    -6.92     5.30     3.50     0.00    -0.00
   13  1.071    -6.92     0.00     0.00     0.00    -2.11
   14  1.067    -7.36     2.90     0.80     0.00    -0.00
   15  1.065    -7.46     3.90     1.20     0.00     0.00
   16  1.067    -7.36     1.60     0.80     0.00     0.00
   17  1.065    -7.68     4.20     2.70     0.00    -0.00
   18  1.060    -7.85     1.50     0.40     0.00    -0.00
   19  1.059    -8.00     4.50     1.60     0.00    -0.00
   20  1.061    -7.94     1.00     0.30     0.00     0.00
   21  1.062    -7.86     8.20     5.30     0.00    -0.00
   22  1.062    -7.84     0.00     0.00     0.00    -0.00
   23  1.061    -7.71     1.50     0.80     0.00    -0.00
   24  1.059    -7.90     4.10     3.10     0.00    -0.00
   25  1.052    -7.39     0.00     0.00     0.00    -0.00
   26  1.044    -7.56     1.60     1.10     0.00     0.00
   27  1.052    -6.96     0.00     0.00    -0.00     0.00
   28  1.018    -5.08     0.00     0.00     0.00    -0.00
   29  1.043    -7.50     1.10     0.40     0.00    -0.00
   30  1.038    -7.89     5.00     0.90     0.00    -0.00

             Total->    141.70    62.70   145.46    17.30

  CORRENTE e FLUXO DE POTÊNCIA POR LINHA
-----------------------------------------------------------------------------------------
 De Para  I(pu) Ângulo     FLUXO DIRETO     FLUXO INVERSO      PERDAS
                (grau)     MW   -> MVar     MW   <- MVar    MW      MVar 
-----------------------------------------------------------------------------------------
  1   2   0.623   -3.23   65.93    3.72  -65.18   -7.33    0.75   -3.60
  1   3   0.377   -8.19   39.53    5.69  -38.88   -7.77    0.65   -2.07
  2   4   0.228   -8.54   23.71    2.76  -23.41   -5.77    0.31   -3.01
  3   4   0.372  -13.97   37.78    7.17  -37.59   -7.53    0.18   -0.36
  2   5   0.383  -13.57   39.21    8.10  -38.50   -9.53    0.71   -1.43
  2   6   0.308   -7.36   32.06    3.07  -31.50   -5.36    0.56   -2.29
  4   6   0.359   -6.28   36.76    1.49  -36.61   -1.90    0.15   -0.41
  5   7   0.058  163.31   -5.80   -1.11    5.82   -0.94    0.02   -2.05
  6   7   0.165  -13.79   16.59    2.63  -16.52   -4.16    0.07   -1.53
  6   8   0.221  -56.50   13.94   17.66  -13.88  -18.38    0.06   -0.72
  6   9   0.204   25.80   17.89  -10.57  -17.89   11.40    0.00    0.83
  6  10   0.104    8.98   10.27   -2.51  -10.27    3.07    0.00    0.56
  9  11   0.084   83.30    0.00   -8.98   -0.00    9.12    0.00    0.15
  9  10   0.170    1.01   17.89   -2.42  -17.89    2.74    0.00    0.32
  4  12   0.259  -30.10   23.84   11.70  -23.84  -10.21    0.00    1.49
 12  13   0.020  -96.92    0.00    2.11   -0.00   -2.11    0.00    0.01
 12  14   0.038  -19.98    3.94    0.91   -3.92   -0.88    0.02    0.04
 12  15   0.092  -21.68    9.57    2.52   -9.51   -2.41    0.06    0.11
 12  16   0.048  -19.94    5.03    1.16   -5.01   -1.12    0.02    0.05
 14  15   0.010  -11.70    1.02    0.08   -1.02   -0.08    0.00    0.00
 16  17   0.032  -12.69    3.41    0.32   -3.40   -0.30    0.01    0.02
 15  18   0.035  -14.36    3.75    0.45   -3.74   -0.43    0.01    0.03
 18  19   0.021   -8.52    2.24    0.03   -2.24   -0.02    0.00    0.01
 19  20   0.026  137.11   -2.26   -1.58    2.27    1.58    0.00    0.00
 10  20   0.036  -37.92    3.28    1.91   -3.27   -1.88    0.01    0.03
 10  17   0.024  -79.34    0.80    2.41   -0.80   -2.40    0.00    0.00
 10  21   0.074  -42.04    6.55    4.48   -6.54   -4.44    0.02    0.04
 10  22   0.034  -41.55    3.02    2.03   -3.01   -2.01    0.01    0.02
 21  22   0.018  144.79   -1.66   -0.86    1.66    0.86    0.00    0.00
 15  23   0.028  -23.58    2.88    0.83   -2.87   -0.82    0.01    0.02
 22  24   0.017  -48.25    1.35    1.15   -1.35   -1.14    0.00    0.00
 23  24   0.013   -8.40    1.37    0.02   -1.37   -0.01    0.00    0.00
 24  25   0.030 -123.58   -1.38    2.88    1.40   -2.85    0.02    0.03
 25  26   0.019  -42.07    1.61    1.11   -1.60   -1.10    0.01    0.01
 25  27   0.033 -157.44   -3.01    1.73    3.02   -1.71    0.01    0.02
 28  27   0.090   -5.07    9.18   -0.00   -9.18    0.30    0.00    0.30
 27  29   0.028  -20.82    2.86    0.71   -2.85   -0.67    0.02    0.03
 27  30   0.032  -18.98    3.29    0.70   -3.26   -0.64    0.03    0.06
 29  30   0.017  -16.41    1.75    0.27   -1.74   -0.26    0.01    0.01
  8  28   0.057   87.25   -0.22   -5.72    0.23    1.34    0.01   -4.38
  6  28   0.092   -5.02    9.42    0.04   -9.41   -1.34    0.01   -1.30
                                        Total Perdas ->    3.76  -18.95

  ***************** RESULTADOS - FLUXO DE POTÊNCIA **********************

                      MÉTODO NEWTON RAPHSON              


#####   HORÁRIO   => 06:00
#####   INTERVALO => 6

  NUMEROS DE BARRAS:	30
  NUMEROS DE LINHAS:	41
  QT. ITERAÇÕES:	3

  TENSÃO E POTÊNCIA POR BARRA
 -----------------------------------------------------------
 Barra Tensão  Ângulo      --Carga--       --Gerador-- 
       (pu)    (grau)      MW      MVar     MW      MVar  
 ------------------------------------------------------------
    1  1.060     0.00     0.00     0.00   138.13     5.54
    2  1.045    -2.33    17.10    10.00   100.90    15.10
    3  1.026    -4.93     1.90     0.90    -0.00     0.00
    4  1.018    -6.05     2.30     0.50    -0.00     0.00
    5  1.010    -9.41    74.40    15.00     0.00    20.43
    6  1.014    -7.37     0.00     0.00     0.00     0.00
    7  1.006    -8.63    18.00     8.60     0.00     0.00
    8  1.010    -7.90    23.70    23.70     0.00    18.09
    9  1.055   -10.22     0.00     0.00     0.00     0.00
   10  1.051   -11.70    14.80     5.10     0.00     0.00
   11  1.082   -10.22     0.00     0.00     0.00    14.08
   12  1.064   -10.79     8.80     5.90     0.00     0.00
   13  1.071   -10.79     0.00     0.00     0.00     5.67
   14  1.052   -11.51     4.90     1.30     0.00     0.00
   15  1.048   -11.62     6.50     2.00    -0.00     0.00
   16  1.052   -11.38     2.80     1.40    -0.00     0.00
   17  1.048   -11.77     7.10     4.60     0.00     0.00
   18  1.040   -12.18     2.50     0.70     0.00     0.00
   19  1.037   -12.37     7.50     2.70     0.00    -0.00
   20  1.040   -12.24     1.70     0.60     0.00     0.00
   21  1.042   -12.02    13.80     8.80     0.00    -0.00
   22  1.042   -12.00     0.00     0.00    -0.00     0.00
   23  1.039   -11.97     2.50     1.30     0.00     0.00
   24  1.035   -12.17     6.90     5.30     0.00    -0.00
   25  1.031   -11.61     0.00     0.00    -0.00     0.00
   26  1.017   -11.95     2.80     1.80     0.00    -0.00
   27  1.035   -11.06     0.00     0.00     0.00     0.00
   28  1.011    -7.88     0.00     0.00    -0.00     0.00
   29  1.020   -12.01     1.90     0.70     0.00     0.00
   30  1.011   -12.69     8.40     1.50     0.00    -0.00

             Total->    230.30   102.40   239.03    78.91

  CORRENTE e FLUXO DE POTÊNCIA POR LINHA
-----------------------------------------------------------------------------------------
 De Para  I(pu) Ângulo     FLUXO DIRETO     FLUXO INVERSO      PERDAS
                (grau)     MW   -> MVar     MW   <- MVar    MW      MVar 
-----------------------------------------------------------------------------------------
  1   2   0.748    0.15   79.33   -0.21  -78.25   -2.42    1.08   -2.63
  1   3   0.557   -5.58   58.80    5.75  -57.38   -5.01    1.42    0.74
  2   4   0.394   -5.51   41.12    2.29  -40.23   -3.48    0.89   -1.20
  3   4   0.542   -9.17   55.48    4.11  -55.10   -3.87    0.39    0.24
  2   5   0.644   -5.94   67.13    4.24  -65.17   -0.39    1.97    3.85
  2   6   0.515   -3.39   53.79    0.99  -52.25   -0.27    1.54    0.72
  4   6   0.550    0.86   55.60   -6.74  -55.24    7.06    0.36    0.32
  5   7   0.108 -157.17   -9.23    5.82    9.29   -7.75    0.06   -1.92
  6   7   0.271   -6.79   27.49   -0.28  -27.29   -0.85    0.20   -1.13
  6   8   0.233  -13.06   23.46    2.34  -23.40   -3.03    0.07   -0.69
  6   9   0.271   10.54   26.11   -8.44  -26.11    9.90   -0.00    1.46
  6  10   0.147   -5.95   14.94   -0.37  -14.94    1.50    0.00    1.13
  9  11   0.130   79.78   -0.00  -13.73    0.00   14.08    0.00    0.35
  9  10   0.250  -18.56   26.11    3.83  -26.11   -3.14   -0.00    0.69
  4  12   0.391  -26.00   37.43   13.59  -37.43  -10.18    0.00    3.41
 12  13   0.053   79.21    0.00   -5.63   -0.00    5.67   -0.00    0.04
 12  14   0.063  -26.80    6.43    1.85   -6.38   -1.74    0.05    0.10
 12  15   0.150  -30.16   15.07    5.30  -14.92   -5.01    0.15    0.29
 12  16   0.072  -32.02    7.13    2.77   -7.08   -2.67    0.05    0.10
 14  15   0.015  -28.20    1.48    0.44   -1.48   -0.44    0.00    0.00
 16  17   0.042  -27.88    4.28    1.27   -4.27   -1.23    0.01    0.03
 15  18   0.054  -24.59    5.53    1.27   -5.50   -1.21    0.03    0.06
 18  19   0.029  -21.83    3.00    0.51   -2.99   -0.50    0.01    0.01
 19  20   0.048  141.60   -4.51   -2.20    4.51    2.22    0.01    0.02
 10  20   0.066  -36.63    6.25    2.91   -6.21   -2.82    0.04    0.09
 10  17   0.042  -61.73    2.83    3.38   -2.83   -3.37    0.01    0.01
 10  21   0.133  -45.19   11.66    7.72  -11.60   -7.58    0.06    0.13
 10  22   0.062  -44.42    5.50    3.53   -5.47   -3.47    0.03    0.06
 21  22   0.024  139.02   -2.20   -1.22    2.20    1.22    0.00    0.00
 15  23   0.047  -38.06    4.37    2.17   -4.35   -2.13    0.02    0.04
 22  24   0.038  -46.59    3.27    2.26   -3.25   -2.23    0.02    0.03
 23  24   0.019  -36.13    1.85    0.83   -1.84   -0.82    0.00    0.01
 24  25   0.029 -139.67   -1.81    2.35    1.82   -2.33    0.02    0.03
 25  26   0.033  -44.68    2.83    1.84   -2.80   -1.80    0.03    0.04
 25  27   0.045  174.36   -4.65    0.49    4.67   -0.44    0.02    0.04
 28  27   0.153  -18.88   15.14    2.94  -15.14   -2.08   -0.00    0.86
 27  29   0.049  -25.60    4.88    1.27   -4.83   -1.17    0.05    0.10
 27  30   0.055  -23.73    5.59    1.26   -5.49   -1.07    0.10    0.18
 29  30   0.029  -21.08    2.93    0.47   -2.91   -0.43    0.02    0.04
  8  28   0.026   88.82   -0.30   -2.58    0.30   -1.79    0.00   -4.37
  6  28   0.153   -7.23   15.49   -0.04  -15.45   -1.15    0.04   -1.19
                                        Total Perdas ->    8.73    2.11

  ***************** RESULTADOS - FLUXO DE POTÊNCIA **********************

                      MÉTODO NEWTON RAPHSON              


#####   HORÁRIO   => 07:00
#####   INTERVALO => 7

  NUMEROS DE BARRAS:	30
  NUMEROS DE LINHAS:	41
  QT. ITERAÇÕES:	4

  TENSÃO E POTÊNCIA POR BARRA
 -----------------------------------------------------------
 Barra Tensão  Ângulo      --Carga--       --Gerador-- 
       (pu)    (grau)      MW      MVar     MW      MVar  
 ------------------------------------------------------------
    1  1.060     0.00     0.00     0.00    17.89    54.99
    2  1.045     1.58    26.50    15.50   347.40    -2.64
    3  1.010    -4.60     2.90     1.50    -0.00     0.00
    4  0.997    -5.63     2.70     0.60    -0.00    -0.00
    5  0.989   -10.20   114.90    23.20     0.00    40.00
    6  0.990    -7.30     0.00     0.00    -0.00     0.00
    7  0.980    -9.16    27.80    13.30     0.00    -0.00
    8  0.988    -8.22    36.60    36.60    -0.00    40.00
    9  1.031   -11.58     0.00     0.00    -0.00    -0.00
   10  1.018   -13.83    14.40     5.00    -0.00     0.00
   11  1.077   -11.58     0.00     0.00     0.00    24.01
   12  1.042   -12.92    13.70     9.20     0.00    -0.00
   13  1.071   -12.92     0.00     0.00     0.00    21.84
   14  1.023   -14.05     7.60     2.00     0.00    -0.00
   15  1.016   -14.13    10.00     3.00     0.00     0.00
   16  1.022   -13.62     4.30     2.20     0.00     0.00
   17  1.013   -14.05    11.00     7.10     0.00    -0.00
   18  1.001   -14.92     3.90     1.10     0.00    -0.00
   19  0.996   -15.14    11.60     4.10     0.00    -0.00
   20  1.001   -14.88     2.70     0.90     0.00    -0.00
   21  1.002   -14.37    21.30    13.70     0.00     0.00
   22  1.003   -14.35     0.00     0.00    -0.00     0.00
   23  1.000   -14.57     3.90     2.00     0.00    -0.00
   24  0.989   -14.73    10.60     8.20     0.00    -0.00
   25  0.985   -14.02     0.00     0.00     0.00     0.00
   26  0.963   -14.58     4.30     2.80     0.00     0.00
   27  0.994   -13.25     0.00     0.00     0.00     0.00
   28  0.985    -8.10     0.00     0.00    -0.00    -0.00
   29  0.969   -14.84     2.90     1.10     0.00    -0.00
   30  0.954   -16.00    12.90     2.30     0.00    -0.00

             Total->    346.50   155.40   365.29   178.20

  CORRENTE e FLUXO DE POTÊNCIA POR LINHA
-----------------------------------------------------------------------------------------
 De Para  I(pu) Ângulo     FLUXO DIRETO     FLUXO INVERSO      PERDAS
                (grau)     MW   -> MVar     MW   <- MVar    MW      MVar 
-----------------------------------------------------------------------------------------
  1   2   0.519 -135.52  -39.22   38.51   39.78  -42.70    0.56   -4.18
  1   3   0.561  -16.09   57.11   16.48  -55.66  -15.54    1.45    0.94
  2   4   0.747   -2.66   77.86    5.77  -74.67    0.13    3.20    5.90
  3   4   0.541  -19.50   52.76   14.04  -52.37  -13.77    0.39    0.27
  2   5   1.057   -4.76  109.81   12.20 -104.51    5.75    5.30   17.95
  2   6   0.896   -2.45   93.45    6.58  -88.76    3.76    4.69   10.34
  4   6   0.692   -3.88   69.02   -2.11  -68.45    3.21    0.57    1.09
  5   7   0.153 -143.44  -10.39   11.05   10.51  -12.73    0.12   -1.68
  6   7   0.391   -7.57   38.72    0.18  -38.31   -0.57    0.41   -0.40
  6   8   0.369   -0.79   36.27   -4.14  -36.10    3.83    0.16   -0.31
  6   9   0.385    3.81   37.44   -7.36  -37.44   10.31    0.00    2.95
  6  10   0.216  -12.61   21.28    1.98  -21.28    0.45    0.00    2.43
  9  11   0.223   78.42    0.00  -22.97   -0.00   24.01    0.00    1.03
  9  10   0.383  -30.27   37.44   12.66  -37.44  -11.05    0.00    1.62
  4  12   0.575  -20.95   55.32   15.15  -55.32   -7.80    0.00    7.35
 12  13   0.204   77.08    0.00  -21.26   -0.00   21.84   -0.00    0.58
 12  14   0.100  -32.35    9.84    3.47   -9.71   -3.21    0.12    0.26
 12  15   0.236  -37.69   22.36   10.32  -21.99   -9.59    0.37    0.73
 12  16   0.108  -45.74    9.42    6.07   -9.31   -5.84    0.11    0.23
 14  15   0.024  -43.90    2.11    1.21   -2.10   -1.20    0.01    0.01
 16  17   0.061  -49.66    5.01    3.64   -4.99   -3.57    0.02    0.07
 15  18   0.082  -34.68    7.81    2.93   -7.74   -2.78    0.07    0.15
 18  19   0.042  -38.55    3.84    1.68   -3.83   -1.66    0.01    0.02
 19  20   0.082  147.41   -7.77   -2.44    7.79    2.49    0.02    0.05
 10  20   0.110  -32.78   10.61    3.64  -10.49   -3.39    0.11    0.25
 10  17   0.069  -44.44    6.03    3.57   -6.01   -3.53    0.02    0.04
 10  21   0.221  -47.28   18.73   12.37  -18.56  -12.01    0.17    0.36
 10  22   0.104  -46.32    8.95    5.70   -8.87   -5.54    0.08    0.16
 21  22   0.032  133.92   -2.74   -1.69    2.74    1.69    0.00    0.00
 15  23   0.078  -51.87    6.28    4.86   -6.22   -4.74    0.06    0.12
 22  24   0.072  -46.43    6.13    3.84   -6.07   -3.75    0.06    0.09
 23  24   0.036  -64.28    2.32    2.74   -2.31   -2.70    0.02    0.03
 24  25   0.034 -146.79   -2.22    2.46    2.24   -2.43    0.02    0.04
 25  26   0.053  -47.65    4.37    2.91   -4.30   -2.80    0.07    0.11
 25  27   0.067  161.81   -6.62   -0.48    6.67    0.58    0.05    0.09
 28  27   0.243  -25.14   22.92    7.02  -22.92   -4.83   -0.00    2.20
 27  29   0.079  -28.90    7.57    2.12   -7.43   -1.86    0.14    0.26
 27  30   0.090  -27.02    8.69    2.13   -8.43   -1.64    0.26    0.49
 29  30   0.047  -24.38    4.53    0.76   -4.47   -0.66    0.05    0.10
  8  28   0.007  130.99   -0.50   -0.43    0.50   -3.73    0.00   -4.16
  6  28   0.239  -13.06   23.51    2.37  -23.41   -3.30    0.10   -0.92
                                        Total Perdas ->   18.79   46.70

  ***************** RESULTADOS - FLUXO DE POTÊNCIA **********************

                      MÉTODO NEWTON RAPHSON              


#####   HORÁRIO   => 08:00
#####   INTERVALO => 8

  NUMEROS DE BARRAS:	30
  NUMEROS DE LINHAS:	41
  QT. ITERAÇÕES:	5

  TENSÃO E POTÊNCIA POR BARRA
 -----------------------------------------------------------
 Barra Tensão  Ângulo      --Carga--       --Gerador-- 
       (pu)    (grau)      MW      MVar     MW      MVar  
 ------------------------------------------------------------
    1  1.060     0.00     0.00     0.00     8.30    61.51
    2  1.045     1.93    27.60    16.10   373.70     3.72
    3  1.005    -4.64     3.00     1.50     0.00    -0.00
    4  0.992    -5.68     3.70     0.80    -0.00     0.00
    5  0.982   -10.42   119.60    24.10     0.00    40.00
    6  0.984    -7.39     0.00     0.00    -0.00     0.00
    7  0.972    -9.34    29.00    13.80     0.00    -0.00
    8  0.980    -8.35    38.10    38.10     0.00    40.00
    9  1.022   -11.89     0.00     0.00    -0.00     0.00
   10  1.009   -14.26    14.60     5.00     0.00     0.00
   11  1.069   -11.89     0.00     0.00     0.00    24.00
   12  1.036   -13.35    14.20     9.50    -0.00     0.00
   13  1.067   -13.35     0.00     0.00    -0.00    24.00
   14  1.015   -14.54     7.90     2.00     0.00     0.00
   15  1.007   -14.62    10.40     3.20     0.00    -0.00
   16  1.014   -14.06     4.40     2.30     0.00    -0.00
   17  1.004   -14.50    11.40     7.40     0.00     0.00
   18  0.992   -15.44     4.10     1.10     0.00    -0.00
   19  0.987   -15.67    12.10     4.30     0.00    -0.00
   20  0.991   -15.40     2.80     0.90     0.00    -0.00
   21  0.993   -14.84    22.20    14.20     0.00     0.00
   22  0.993   -14.82     0.00     0.00     0.00    -0.00
   23  0.990   -15.08     4.10     2.00     0.00    -0.00
   24  0.979   -15.23    11.00     8.50     0.00     0.00
   25  0.975   -14.49     0.00     0.00     0.00     0.00
   26  0.952   -15.07     4.40     2.90     0.00     0.00
   27  0.984   -13.68     0.00     0.00     0.00     0.00
   28  0.977    -8.23     0.00     0.00    -0.00    -0.00
   29  0.958   -15.39     3.00     1.10     0.00    -0.00
   30  0.942   -16.63    13.50     2.40     0.00    -0.00

             Total->    361.10   161.20   382.00   193.23

  CORRENTE e FLUXO DE POTÊNCIA POR LINHA
-----------------------------------------------------------------------------------------
 De Para  I(pu) Ângulo     FLUXO DIRETO     FLUXO INVERSO      PERDAS
                (grau)     MW   -> MVar     MW   <- MVar    MW      MVar 
-----------------------------------------------------------------------------------------
  1   2   0.617 -139.57  -49.76   42.39   50.53  -45.92    0.77   -3.53
  1   3   0.577  -18.23   58.05   19.12  -56.51  -17.84    1.54    1.28
  2   4   0.792   -3.69   82.36    8.11  -78.77   -0.98    3.59    7.13
  3   4   0.557  -21.62   53.51   16.34  -53.10  -16.00    0.41    0.34
  2   5   1.110   -5.87  114.91   15.75 -109.06    4.52    5.85   20.27
  2   6   0.945   -3.70   98.30    9.68  -93.09    2.29    5.21   11.97
  4   6   0.712   -6.10   70.67    0.52  -70.06    0.70    0.60    1.22
  5   7   0.158 -143.23  -10.54   11.38   10.67  -13.01    0.13   -1.63
  6   7   0.408   -8.15   40.11    0.53  -39.67   -0.79    0.44   -0.26
  6   8   0.385   -3.40   37.76   -2.64  -37.58    2.39    0.18   -0.25
  6   9   0.400    2.08   38.77   -6.47  -38.77    9.64   -0.00    3.18
  6  10   0.225  -13.78   22.03    2.47  -22.03    0.18    0.00    2.65
  9  11   0.225   78.11    0.00  -22.95   -0.00   24.00    0.00    1.05
  9  10   0.401  -30.83   38.77   13.31  -38.77  -11.54    0.00    1.77
  4  12   0.601  -20.91   57.50   15.65  -57.50   -7.63   -0.00    8.03
 12  13   0.225   76.65    0.00  -23.30   -0.00   24.00    0.00    0.71
 12  14   0.105  -32.95   10.27    3.66  -10.14   -3.37    0.14    0.28
 12  15   0.249  -38.75   23.32   11.07  -22.91  -10.26    0.41    0.81
 12  16   0.114  -47.92    9.71    6.69   -9.59   -6.43    0.12    0.26
 14  15   0.026  -46.12    2.24    1.37   -2.22   -1.36    0.01    0.01
 16  17   0.065  -52.61    5.19    4.13   -5.16   -4.05    0.02    0.08
 15  18   0.087  -36.12    8.16    3.22   -8.08   -3.05    0.08    0.17
 18  19   0.045  -41.55    3.98    1.95   -3.97   -1.92    0.01    0.03
 19  20   0.086  148.04   -8.13   -2.38    8.16    2.43    0.03    0.05
 10  20   0.116  -32.28   11.08    3.60  -10.96   -3.33    0.12    0.28
 10  17   0.071  -42.74    6.25    3.39   -6.24   -3.35    0.02    0.04
 10  21   0.231  -47.51   19.53   12.80  -19.34  -12.40    0.19    0.40
 10  22   0.109  -46.52    9.33    5.89   -9.24   -5.71    0.09    0.18
 21  22   0.034  132.96   -2.86   -1.80    2.86    1.80    0.00    0.00
 15  23   0.083  -53.04    6.57    5.21   -6.50   -5.07    0.07    0.14
 22  24   0.075  -46.28    6.39    3.91   -6.32   -3.81    0.07    0.10
 23  24   0.039  -67.06    2.40    3.07   -2.38   -3.03    0.02    0.04
 24  25   0.034 -148.35   -2.30    2.45    2.32   -2.42    0.02    0.04
 25  26   0.055  -48.46    4.48    3.02   -4.40   -2.90    0.08    0.12
 25  27   0.070  160.46   -6.80   -0.60    6.85    0.70    0.05    0.10
 28  27   0.256  -25.87   23.86    7.59  -23.86   -5.15    0.00    2.44
 27  29   0.083  -29.28    7.91    2.21   -7.75   -1.92    0.15    0.29
 27  30   0.095  -27.54    9.10    2.24   -8.81   -1.70    0.29    0.55
 29  30   0.050  -25.14    4.75    0.82   -4.69   -0.70    0.06    0.11
  8  28   0.007  128.31   -0.52   -0.49    0.52   -3.60    0.00   -4.09
  6  28   0.251  -14.64   24.49    3.12  -24.38   -3.99    0.11   -0.87
                                        Total Perdas ->   20.90   55.49

  ***************** RESULTADOS - FLUXO DE POTÊNCIA **********************

                      MÉTODO NEWTON RAPHSON              


#####   HORÁRIO   => 09:00
#####   INTERVALO => 9

  NUMEROS DE BARRAS:	30
  NUMEROS DE LINHAS:	41
  QT. ITERAÇÕES:	5

  TENSÃO E POTÊNCIA POR BARRA
 -----------------------------------------------------------
 Barra Tensão  Ângulo      --Carga--       --Gerador-- 
       (pu)    (grau)      MW      MVar     MW      MVar  
 ------------------------------------------------------------
    1  1.060     0.00     0.00     0.00    19.84    61.63
    2  1.045     1.68    28.60    16.80   376.90    18.94
    3  0.999    -4.96     3.20     1.60     0.00    -0.00
    4  0.985    -6.08     2.70     0.60    -0.00     0.00
    5  0.973   -11.17   124.30    25.10     0.00    40.00
    6  0.975    -7.90     0.00     0.00    -0.00     0.00
    7  0.963    -9.99    30.10    14.40     0.00    -0.00
    8  0.971    -8.91    39.60    39.60     0.00    40.00
    9  1.010   -12.67     0.00     0.00    -0.00     0.00
   10  0.995   -15.20    15.10     5.20     0.00     0.00
   11  1.057   -12.67     0.00     0.00    -0.00    24.00
   12  1.024   -14.22    14.80     9.90    -0.00     0.00
   13  1.056   -14.22     0.00     0.00     0.00    24.00
   14  1.002   -15.48     8.20     2.10     0.00    -0.00
   15  0.994   -15.57    10.80     3.30     0.00    -0.00
   16  1.001   -14.98     4.60     2.40     0.00     0.00
   17  0.990   -15.45    11.90     7.70     0.00    -0.00
   18  0.977   -16.44     4.20     1.20     0.00    -0.00
   19  0.972   -16.69    12.50     4.50     0.00    -0.00
   20  0.977   -16.40     2.90     0.90     0.00    -0.00
   21  0.978   -15.82    23.10    14.80     0.00    -0.00
   22  0.979   -15.79     0.00     0.00    -0.00     0.00
   23  0.976   -16.06     4.20     2.10     0.00    -0.00
   24  0.964   -16.23    11.50     8.80     0.00    -0.00
   25  0.961   -15.47     0.00     0.00    -0.00     0.00
   26  0.936   -16.10     4.60     3.00     0.00    -0.00
   27  0.971   -14.62     0.00     0.00     0.00     0.00
   28  0.968    -8.78     0.00     0.00    -0.00     0.00
   29  0.942   -16.45     3.20     1.20     0.00    -0.00
   30  0.926   -17.78    14.00     2.50     0.00    -0.00

             Total->    374.10   167.70   396.74   208.57

  CORRENTE e FLUXO DE POTÊNCIA POR LINHA
-----------------------------------------------------------------------------------------
 De Para  I(pu) Ângulo     FLUXO DIRETO     FLUXO INVERSO      PERDAS
                (grau)     MW   -> MVar     MW   <- MVar    MW      MVar 
-----------------------------------------------------------------------------------------
  1   2   0.547 -136.85  -42.28   39.63   42.89  -43.64    0.62   -4.01
  1   3   0.622  -19.50   62.12   22.00  -60.33  -19.79    1.79    2.21
  2   4   0.817   -6.25   84.54   11.78  -80.71   -3.90    3.83    7.88
  3   4   0.600  -22.62   57.13   18.19  -56.65  -17.65    0.48    0.54
  2   5   1.158   -7.80  119.34   19.93 -112.97    2.57    6.37   22.49
  2   6   0.981   -6.21  101.53   14.07  -95.91   -0.83    5.62   13.24
  4   6   0.760   -8.40   74.83    3.04  -74.14   -1.51    0.69    1.53
  5   7   0.172 -143.74  -11.33   12.33   11.48  -13.87    0.15   -1.54
  6   7   0.432   -8.53   42.08    0.46  -41.58   -0.53    0.50   -0.07
  6   8   0.403   -6.39   39.28   -1.04  -39.09    0.87    0.19   -0.17
  6   9   0.416   -1.20   40.25   -4.73  -40.25    8.17    0.00    3.44
  6  10   0.237  -16.48   22.86    3.45  -22.86   -0.51   -0.00    2.94
  9  11   0.227   77.33    0.00  -22.93   -0.00   24.00   -0.00    1.07
  9  10   0.424  -32.81   40.25   14.76  -40.25  -12.78   -0.00    1.98
  4  12   0.634  -22.75   59.83   17.91  -59.83   -8.97   -0.00    8.94
 12  13   0.227   75.78   -0.00  -23.28    0.00   24.00    0.00    0.72
 12  14   0.111  -33.99   10.67    3.83  -10.52   -3.52    0.15    0.31
 12  15   0.262  -39.75   24.22   11.57  -23.76  -10.67    0.45    0.90
 12  16   0.120  -48.63   10.14    6.95  -10.01   -6.66    0.14    0.29
 14  15   0.027  -46.99    2.32    1.42   -2.30   -1.41    0.02    0.01
 16  17   0.069  -53.22    5.41    4.26   -5.38   -4.17    0.02    0.09
 15  18   0.091  -37.33    8.44    3.37   -8.35   -3.18    0.09    0.18
 18  19   0.047  -42.03    4.15    1.98   -4.13   -1.96    0.01    0.03
 19  20   0.090  146.41   -8.37   -2.54    8.40    2.60    0.03    0.06
 10  20   0.121  -33.60   11.43    3.81  -11.30   -3.50    0.14    0.31
 10  17   0.075  -43.89    6.53    3.58   -6.52   -3.53    0.02    0.05
 10  21   0.245  -48.53   20.33   13.37  -20.12  -12.92    0.21    0.45
 10  22   0.116  -47.54    9.72    6.15   -9.62   -5.95    0.10    0.20
 21  22   0.036  131.96   -2.98   -1.88    2.98    1.88    0.00    0.00
 15  23   0.088  -53.94    6.83    5.41   -6.75   -5.25    0.08    0.16
 22  24   0.080  -47.31    6.64    4.07   -6.57   -3.96    0.07    0.11
 23  24   0.042  -67.07    2.55    3.15   -2.53   -3.11    0.02    0.05
 24  25   0.034 -152.98   -2.40    2.26    2.42   -2.22    0.02    0.04
 25  26   0.059  -49.21    4.69    3.13   -4.60   -3.00    0.09    0.13
 25  27   0.075  157.23   -7.11   -0.91    7.17    1.03    0.06    0.12
 28  27   0.272  -27.70   24.94    8.54  -24.94   -5.79    0.00    2.75
 27  29   0.089  -30.61    8.28    2.37   -8.11   -2.05    0.17    0.33
 27  30   0.101  -28.79    9.48    2.39   -9.16   -1.78    0.32    0.61
 29  30   0.053  -26.22    4.91    0.85   -4.84   -0.72    0.07    0.13
  8  28   0.007  128.75   -0.51   -0.47    0.51   -3.55    0.00   -4.01
  6  28   0.266  -17.23   25.57    4.20  -25.45   -5.00    0.12   -0.80
                                        Total Perdas ->   22.64   63.68

  ***************** RESULTADOS - FLUXO DE POTÊNCIA **********************

                      MÉTODO NEWTON RAPHSON              


#####   HORÁRIO   => 10:00
#####   INTERVALO => 10

  NUMEROS DE BARRAS:	30
  NUMEROS DE LINHAS:	41
  QT. ITERAÇÕES:	5

  TENSÃO E POTÊNCIA POR BARRA
 -----------------------------------------------------------
 Barra Tensão  Ângulo      --Carga--       --Gerador-- 
       (pu)    (grau)      MW      MVar     MW      MVar  
 ------------------------------------------------------------
    1  1.060     0.00     0.00     0.00    19.97    62.35
    2  1.045     1.69    28.90    16.90   379.70    21.47
    3  0.998    -4.99     3.20     1.60     0.00    -0.00
    4  0.984    -6.11     1.60     0.30    -0.00     0.00
    5  0.972   -11.27   125.30    25.30     0.00    40.00
    6  0.973    -7.96     0.00     0.00    -0.00     0.00
    7  0.961   -10.07    30.30    14.50     0.00    -0.00
    8  0.969    -8.97    39.90    39.90     0.00    40.00
    9  1.008   -12.82     0.00     0.00    -0.00     0.00
   10  0.992   -15.39    15.70     5.40     0.00     0.00
   11  1.055   -12.82     0.00     0.00     0.00    24.00
   12  1.021   -14.38    14.90    10.00    -0.00     0.00
   13  1.053   -14.38     0.00     0.00    -0.00    24.00
   14  0.999   -15.66     8.20     2.10     0.00    -0.00
   15  0.991   -15.75    10.90     3.30     0.00    -0.00
   16  0.998   -15.16     4.70     2.40     0.00     0.00
   17  0.987   -15.65    12.00     7.70     0.00    -0.00
   18  0.974   -16.65     4.30     1.20     0.00    -0.00
   19  0.969   -16.90    12.60     4.50     0.00    -0.00
   20  0.973   -16.61     2.90     0.90     0.00    -0.00
   21  0.975   -16.02    23.30    14.90     0.00    -0.00
   22  0.976   -15.99     0.00     0.00    -0.00     0.00
   23  0.973   -16.26     4.30     2.10     0.00    -0.00
   24  0.960   -16.43    11.60     8.90     0.00    -0.00
   25  0.957   -15.66     0.00     0.00    -0.00     0.00
   26  0.932   -16.30     4.70     3.10     0.00    -0.00
   27  0.968   -14.79     0.00     0.00     0.00     0.00
   28  0.966    -8.85     0.00     0.00    -0.00     0.00
   29  0.939   -16.64     3.20     1.20     0.00    -0.00
   30  0.923   -17.99    14.10     2.50     0.00    -0.00

             Total->    376.60   168.70   399.67   211.81

  CORRENTE e FLUXO DE POTÊNCIA POR LINHA
-----------------------------------------------------------------------------------------
 De Para  I(pu) Ângulo     FLUXO DIRETO     FLUXO INVERSO      PERDAS
                (grau)     MW   -> MVar     MW   <- MVar    MW      MVar 
-----------------------------------------------------------------------------------------
  1   2   0.549 -136.95  -42.52   39.72   43.14  -43.71    0.62   -3.99
  1   3   0.627  -19.91   62.48   22.63  -60.66  -20.30    1.82    2.33
  2   4   0.822   -6.66   85.04   12.48  -81.15   -4.43    3.88    8.05
  3   4   0.605  -23.01   57.46   18.70  -56.98  -18.13    0.49    0.57
  2   5   1.168   -8.13  120.32   20.81 -113.83    2.19    6.49   23.00
  2   6   0.989   -6.64  102.31   14.99  -96.59   -1.43    5.72   13.55
  4   6   0.773   -8.97   75.98    3.80  -75.27   -2.19    0.71    1.62
  5   7   0.175 -143.78  -11.47   12.51   11.62  -14.03    0.15   -1.52
  6   7   0.436   -8.55   42.43    0.44  -41.92   -0.47    0.51   -0.03
  6   8   0.407   -6.94   39.60   -0.71  -39.40    0.56    0.20   -0.15
  6   9   0.422   -2.00   40.81   -4.27  -40.81    7.80    0.00    3.54
  6  10   0.241  -17.06   23.17    3.71  -23.17   -0.68   -0.00    3.04
  9  11   0.228   77.18    0.00  -22.92   -0.00   24.00   -0.00    1.08
  9  10   0.432  -33.15   40.81   15.12  -40.81  -13.07    0.00    2.05
  4  12   0.644  -23.06   60.55   18.46  -60.55   -9.25    0.00    9.21
 12  13   0.228   75.62    0.00  -23.27   -0.00   24.00    0.00    0.73
 12  14   0.112  -34.07   10.75    3.85  -10.60   -3.53    0.15    0.32
 12  15   0.266  -39.81   24.53   11.67  -24.07  -10.74    0.47    0.92
 12  16   0.122  -48.45   10.36    7.01  -10.22   -6.71    0.14    0.30
 14  15   0.028  -46.41    2.40    1.43   -2.38   -1.41    0.02    0.02
 16  17   0.070  -53.15    5.52    4.31   -5.49   -4.21    0.03    0.09
 15  18   0.093  -37.26    8.59    3.38   -8.49   -3.19    0.09    0.19
 18  19   0.048  -42.08    4.19    1.99   -4.18   -1.96    0.01    0.03
 19  20   0.091  146.34   -8.42   -2.54    8.45    2.59    0.03    0.06
 10  20   0.122  -33.71   11.49    3.80  -11.35   -3.49    0.14    0.31
 10  17   0.075  -43.82    6.53    3.53   -6.51   -3.49    0.02    0.05
 10  21   0.247  -48.77   20.48   13.50  -20.27  -13.04    0.21    0.46
 10  22   0.117  -47.81    9.78    6.21   -9.68   -6.01    0.10    0.20
 21  22   0.036  132.39   -3.03   -1.86    3.03    1.87    0.00    0.00
 15  23   0.089  -53.93    6.96    5.47   -6.88   -5.31    0.08    0.16
 22  24   0.080  -47.91    6.65    4.14   -6.58   -4.03    0.07    0.12
 23  24   0.042  -67.47    2.58    3.21   -2.56   -3.16    0.02    0.05
 24  25   0.035 -153.93   -2.46    2.26    2.49   -2.22    0.02    0.04
 25  26   0.060  -49.71    4.79    3.24   -4.70   -3.10    0.09    0.14
 25  27   0.077  156.35   -7.28   -1.02    7.34    1.15    0.06    0.12
 28  27   0.276  -28.02   25.22    8.77  -25.22   -5.93   -0.00    2.84
 27  29   0.089  -30.75    8.33    2.38   -8.15   -2.05    0.18    0.33
 27  30   0.102  -28.93    9.55    2.40   -9.22   -1.78    0.33    0.62
 29  30   0.053  -26.36    4.95    0.85   -4.88   -0.72    0.07    0.13
  8  28   0.007  128.55   -0.50   -0.46    0.50   -3.54    0.00   -4.00
  6  28   0.269  -17.72   25.84    4.44  -25.72   -5.23    0.12   -0.78
                                        Total Perdas ->   23.07   65.78

  ***************** RESULTADOS - FLUXO DE POTÊNCIA **********************

                      MÉTODO NEWTON RAPHSON              


#####   HORÁRIO   => 11:00
#####   INTERVALO => 11

  NUMEROS DE BARRAS:	30
  NUMEROS DE LINHAS:	41
  QT. ITERAÇÕES:	5

  TENSÃO E POTÊNCIA POR BARRA
 -----------------------------------------------------------
 Barra Tensão  Ângulo      --Carga--       --Gerador-- 
       (pu)    (grau)      MW      MVar     MW      MVar  
 ------------------------------------------------------------
    1  1.060     0.00     0.00     0.00   221.84    44.06
    2  1.027    -3.60    28.60    16.80   177.30    50.00
    3  0.986    -8.02     3.20     1.60    -0.00     0.00
    4  0.969    -9.92     1.10     0.20    -0.00     0.00
    5  0.955   -16.30   124.30    25.10     0.00    40.00
    6  0.958   -12.23     0.00     0.00    -0.00     0.00
    7  0.945   -14.67    30.10    14.40     0.00     0.00
    8  0.953   -13.27    39.60    39.60     0.00    40.00
    9  0.991   -17.15     0.00     0.00    -0.00     0.00
   10  0.975   -19.76    15.90     5.50     0.00     0.00
   11  1.039   -17.15     0.00     0.00     0.00    24.00
   12  1.005   -18.55    14.80     9.90     0.00     0.00
   13  1.037   -18.55     0.00     0.00     0.00    24.00
   14  0.982   -19.89     8.20     2.10     0.00    -0.00
   15  0.974   -20.00    10.80     3.30     0.00    -0.00
   16  0.981   -19.42     4.60     2.40     0.00    -0.00
   17  0.970   -19.99    11.90     7.70     0.00    -0.00
   18  0.957   -20.96     4.20     1.20     0.00    -0.00
   19  0.951   -21.25    12.50     4.50     0.00    -0.00
   20  0.956   -20.96     2.90     0.90     0.00    -0.00
   21  0.957   -20.40    23.10    14.80     0.00    -0.00
   22  0.958   -20.37     0.00     0.00     0.00     0.00
   23  0.956   -20.56     4.20     2.10     0.00    -0.00
   24  0.943   -20.80    11.50     8.80     0.00    -0.00
   25  0.940   -20.05     0.00     0.00     0.00     0.00
   26  0.915   -20.71     4.60     3.00     0.00    -0.00
   27  0.951   -19.19     0.00     0.00     0.00     0.00
   28  0.950   -13.14     0.00     0.00    -0.00    -0.00
   29  0.922   -21.10     3.20     1.20     0.00     0.00
   30  0.905   -22.49    14.00     2.50     0.00    -0.00

             Total->    373.30   167.60   399.14   222.06

  CORRENTE e FLUXO DE POTÊNCIA POR LINHA
-----------------------------------------------------------------------------------------
 De Para  I(pu) Ângulo     FLUXO DIRETO     FLUXO INVERSO      PERDAS
                (grau)     MW   -> MVar     MW   <- MVar    MW      MVar 
-----------------------------------------------------------------------------------------
  1   2   1.202   -8.44  126.05   18.71 -123.26  -16.09    2.80    2.62
  1   3   0.935  -14.82   95.79   25.35  -91.79  -15.01    4.00   10.34
...